-------------------------------------------------------
          Amber 22 SANDER                              2022
          -------------------------------------------------------

  [-O]verwriting output

File Assignments:

 Here is the input file:

100ps MD to equilibrate density
 &cntrl
  imin = 0,irest =1,ntx=7,
  ntb=2,pres0=1.0,ntp=1,
  taup=2.0,
  ig=-1,
  cut=9.0, ntr=0,
  ntc=2, ntf=2,
  tempi=300.0,temp0=300.0,
  ntt=3, gamma_ln=1.0,
  nstlim=25000,dt=0.002,
  ntpr=100, ntwx=100, ntwr=100

/

--------------------------------------------------------------------------------
   1.  RESOURCE   USE:
--------------------------------------------------------------------------------

 getting box info from netcdf restart file
 NATOM  =  105072 NTYPES =      17 NBONH =  101674 MBONA  =    3472
 NTHETH =    7471 MTHETA =    4721 NPHIH =   15549 MPHIA  =   15035
 NHPARM =       0 NPARM  =       0 NNB   =  168120 NRES   =   33244
 NBONA  =    3472 NTHETA =    4721 NPHIA =   15035 NUMBND =      71
 NUMANG =     171 NPTRA  =     198 NATYP =      35 NPHB   =       1
 IFBOX  =       2 NMXRS  =      24 IFCAP =       0 NEXTRA =       0
 NCOPY  =       0

     BOX TYPE: TRUNCATED OCTAHEDRON
Note: ig = -1. Setting random seed to   682692 based on wallclock time in microseconds.

--------------------------------------------------------------------------------
   2.  CONTROL  DATA  FOR  THE  RUN
--------------------------------------------------------------------------------

default_name

General flags:
     imin    =       0, nmropt  =       0

Nature and format of input:
     ntx     =       7, irest   =       1, ntrx    =       1

Nature and format of output:
     ntxo    =       2, ntpr    =     100, ntrx    =       1, ntwr    =     100
     iwrap   =       0, ntwx    =     100, ntwv    =       0, ntwe    =       0
     ioutfm  =       1, ntwprt  =       0, idecomp =       0, rbornstat=      0

Potential function:
     ntf     =       2, ntb     =       2, igb     =       0, nsnb    =      25
     ipol    =       0, gbsa    =       0, iesp    =       0
     dielc   =   1.00000, cut     =   9.00000, intdiel =   1.00000

Frozen or restrained atoms:
     ibelly  =       0, ntr     =       0

Molecular dynamics:
     nstlim  =     25000, nscm    =      1000, nrespa  =         1
     t       =   0.00000, dt      =   0.00200, vlimit  =  20.00000

Langevin dynamics temperature regulation:
     ig      =  682692
     temp0   = 300.00000, tempi   = 300.00000, gamma_ln=   1.00000

Pressure regulation:
     ntp     =       1
     pres0   =   1.00000, comp    =  44.60000, taup    =   2.00000

SHAKE:
     ntc     =       2, jfastw  =       0
     tol     =   0.00001

Ewald parameters:
     verbose =       0, ew_type =       0, nbflag  =       1, use_pme =       1
     vdwmeth =       1, eedmeth =       1, netfrc  =       1
     Box X =  114.208   Box Y =  114.208   Box Z =  114.208
     Alpha =  109.471   Beta  =  109.471   Gamma =  109.471
     NFFT1 =  120       NFFT2 =  120       NFFT3 =  120
     Cutoff=    9.000   Tol   =0.100E-04
     Ewald Coefficient =  0.30768
     Interpolation order =    4

WARNING: ntx was set to 7;
         ntx has been redefined to 5 for your safety;
         the file type is now auto-detected; please update to ntx = 5.

--------------------------------------------------------------------------------
   3.  ATOMIC COORDINATES AND VELOCITIES
--------------------------------------------------------------------------------

default_name
 begin time read from input coords =    20.000 ps

 Number of triangulated 3-point waters found:    32792

     Sum of charges from parm topology file =  -0.00003630
     Forcing neutrality...

--------------------------------------------------------------------------------
   4.  RESULTS
 NSTEP =      100   TIME(PS) =      20.200  TEMP(K) =   202.86  PRESS = -2046.4
 Etot   =   -362150.2286  EKtot   =     43041.6431  EPtot      =   -405191.8717
 BOND   =       866.2463  ANGLE   =      2322.5625  DIHED      =      2212.6434
 1-4 NB =      1415.6407  1-4 EEL =     18779.2741  VDWAALS    =     72020.7053
 EELEC  =   -503098.4459  EHBOND  =         0.0000  RESTRAINT  =         0.0000
 EKCMT  =     21419.1245  VIRIAL  =     71348.5465  VOLUME     =   1130049.6077
 CMAP   =       289.5018
                                                    Density    =         0.9393
 Ewald error estimate:   0.1539E-03
 ------------------------------------------------------------------------------

      A V E R A G E S   O V E R   25000 S T E P S

 NSTEP =    25000   TIME(PS) =      70.000  TEMP(K) =   297.25  PRESS =   -83.9
 Etot   =   -316520.1937  EKtot   =     63069.7581  EPtot      =   -379589.9518
 BOND   =      1279.0346  ANGLE   =      3358.6828  DIHED      =      2500.5606
 1-4 NB =      1513.5396  1-4 EEL =     18793.8988  VDWAALS    =     65198.5171
 EELEC  =   -472539.8659  EHBOND  =         0.0000  RESTRAINT  =         0.0000
 EKCMT  =     29199.4055  VIRIAL  =     31181.5557  VOLUME     =   1048728.7525
 CMAP   =       305.6807
                                                    Density    =         1.0123
 Ewald error estimate:   0.5171E-04
 ------------------------------------------------------------------------------

      R M S  F L U C T U A T I O N S

 NSTEP =    25000   TIME(PS) =      70.000  TEMP(K) =    12.57  PRESS =   319.4
 Etot   =      6123.7300  EKtot   =      2668.0705  EPtot      =      3570.9835
 BOND   =        61.0943  ANGLE   =       134.7386  DIHED      =        42.4317
 1-4 NB =        19.4424  1-4 EEL =        47.8406  VDWAALS    =      1423.4317
 EELEC  =      4624.3459  EHBOND  =         0.0000  RESTRAINT  =         0.0000
 EKCMT  =      1184.7454  VIRIAL  =      6647.9218  VOLUME     =     14541.1247
 CMAP   =        11.6196
                                                    Density    =         0.0134
 Ewald error estimate:   0.3587E-04
 ------------------------------------------------------------------------------
