-------------------------------------------------------
          Amber 22 SANDER                              2022
          -------------------------------------------------------

  [-O]verwriting output

File Assignments:

 Here is the input file:

20ps minimization with restraint on protein
 &cntrl
  imin = 0,
  irest =0,
  ntx=1,
  ntb=1,
  cut=9.0,
  ntr=1,
  ntc=2,
  ntf=2,
  tempi=0.0,
  temp0=300.0,
  ntt=3,
  ig=-1,
  gamma_ln=1.0,
  nstlim=10000,dt=0.002
  ntpr=100, ntwx=100, ntwr=1000
/
Hold the protein fixed
10.0
RES 1 161
END
END

--------------------------------------------------------------------------------
   1.  RESOURCE   USE:
--------------------------------------------------------------------------------

 getting box info from netcdf restart file
 NATOM  =  105072 NTYPES =      17 NBONH =  101674 MBONA  =    3472
 NTHETH =    7471 MTHETA =    4721 NPHIH =   15549 MPHIA  =   15035
 NHPARM =       0 NPARM  =       0 NNB   =  168120 NRES   =   33244
 NBONA  =    3472 NTHETA =    4721 NPHIA =   15035 NUMBND =      71
 NUMANG =     171 NPTRA  =     198 NATYP =      35 NPHB   =       1
 IFBOX  =       2 NMXRS  =      24 IFCAP =       0 NEXTRA =       0
 NCOPY  =       0

     BOX TYPE: TRUNCATED OCTAHEDRON
Note: ig = -1. Setting random seed to   845196 based on wallclock time in microseconds.

--------------------------------------------------------------------------------
   2.  CONTROL  DATA  FOR  THE  RUN
--------------------------------------------------------------------------------

default_name

General flags:
     imin    =       0, nmropt  =       0

Nature and format of input:
     ntx     =       1, irest   =       0, ntrx    =       1

Nature and format of output:
     ntxo    =       2, ntpr    =     100, ntrx    =       1, ntwr    =    1000
     iwrap   =       0, ntwx    =     100, ntwv    =       0, ntwe    =       0
     ioutfm  =       1, ntwprt  =       0, idecomp =       0, rbornstat=      0

Potential function:
     ntf     =       2, ntb     =       1, igb     =       0, nsnb    =      25
     ipol    =       0, gbsa    =       0, iesp    =       0
     dielc   =   1.00000, cut     =   9.00000, intdiel =   1.00000

Frozen or restrained atoms:
     ibelly  =       0, ntr     =       1
     restraint_wt =   0.00000

Molecular dynamics:
     nstlim  =     10000, nscm    =         0, nrespa  =         1
     t       =   0.00000, dt      =   0.00200, vlimit  =  20.00000

Langevin dynamics temperature regulation:
     ig      =  845196
     temp0   = 300.00000, tempi   =   0.00000, gamma_ln=   1.00000

SHAKE:
     ntc     =       2, jfastw  =       0
     tol     =   0.00001

Ewald parameters:
     verbose =       0, ew_type =       0, nbflag  =       1, use_pme =       1
     vdwmeth =       1, eedmeth =       1, netfrc  =       1
     Box X =  114.208   Box Y =  114.208   Box Z =  114.208
     Alpha =  109.471   Beta  =  109.471   Gamma =  109.471
     NFFT1 =  120       NFFT2 =  120       NFFT3 =  120
     Cutoff=    9.000   Tol   =0.100E-04
     Ewald Coefficient =  0.30768
     Interpolation order =    4

    LOADING THE CONSTRAINED ATOMS AS GROUPS

   5.  REFERENCE ATOM COORDINATES

  defa
    ----- READING GROUP     1; TITLE:
 Hold the protein fixed

     GROUP    1 HAS HARMONIC CONSTRAINTS    10.00000
 GRP    1 RES    1 TO   161
      Number of atoms in this group  =  2434
    ----- END OF GROUP READ -----

--------------------------------------------------------------------------------
   3.  ATOMIC COORDINATES AND VELOCITIES
--------------------------------------------------------------------------------

default_name
 begin time read from input coords =     0.000 ps

 Number of triangulated 3-point waters found:    32792

     Sum of charges from parm topology file =  -0.00003630
     Forcing neutrality...

--------------------------------------------------------------------------------
   4.  RESULTS
 NSTEP =        0   TIME(PS) =       0.000  TEMP(K) =     0.00  PRESS =     0.0
 Etot   =   -523771.1868  EKtot   =         0.0000  EPtot      =   -523771.1868
 BOND   =       227.9837  ANGLE   =       866.8432  DIHED      =      1889.0738
 1-4 NB =      1298.5702  1-4 EEL =     18803.3308  VDWAALS    =    101668.8661
 EELEC  =   -648808.5609  EHBOND  =         0.0000  RESTRAINT  =         0.0000
 CMAP   =       282.7064
 Ewald error estimate:   0.2477E-03
 ------------------------------------------------------------------------------

      A V E R A G E S   O V E R   10000 S T E P S

 NSTEP =    10000   TIME(PS) =      20.000  TEMP(K) =   284.63  PRESS =     0.0
 Etot   =   -316223.1635  EKtot   =     60392.1011  EPtot      =   -376615.2646
 BOND   =      1228.8902  ANGLE   =      3150.9321  DIHED      =      2427.6648
 1-4 NB =      1470.2178  1-4 EEL =     18768.4608  VDWAALS    =     63162.6360
 EELEC  =   -467559.4139  EHBOND  =         0.0000  RESTRAINT  =       428.0862
 EAMBER (non-restraint)  =   -377043.3508
 CMAP   =       307.2614
 Ewald error estimate:   0.6668E-04
 ------------------------------------------------------------------------------

      R M S  F L U C T U A T I O N S

 NSTEP =    10000   TIME(PS) =      20.000  TEMP(K) =    42.93  PRESS =     0.0
 Etot   =     20736.5047  EKtot   =      9107.9315  EPtot      =     11717.1669
 BOND   =       159.2900  ANGLE   =       360.1605  DIHED      =        84.4667
 1-4 NB =        30.7188  1-4 EEL =        41.2022  VDWAALS    =      4265.0011
 EELEC  =     15208.4983  EHBOND  =         0.0000  RESTRAINT  =        69.5688
 EAMBER (non-restraint)  =     11647.5981
 CMAP   =         9.7289
 Ewald error estimate:   0.5260E-04
 ------------------------------------------------------------------------------
